
&RUN
tEnd=10.0
nStepmax=50
nOutput=10
/

&MESH
nx=1024
ny=1024
boundary_type_xmin=1
boundary_type_xmax=1
boundary_type_ymin=1
boundary_type_ymax=1
/

&HYDRO
gamma0=1.666
cfl=0.8
smallr=1e-7
smallc=1e-7
niter_riemann=10
iorder=2
slope_type=2
/
